[board]
type=System
children=cache_hierarchy clk_domain dvfs_handler iobus memory pc processor workload
cache_line_size=64
eventq_index=0
exit_on_work_items=true
init_param=0
kvm_vm=board.processor.kvm_vm
m5ops_base=4294901760
mem_mode=atomic_noncaching
mem_ranges=0:2147483648 3221225472:3222274048
memories=board.memory.mem_ctrl.dram
mmap_using_noreserve=false
multi_thread=false
num_work_ids=16
readfile=results/o3/rob192/readfile
redirect_paths=
shadow_rom_ranges=
shared_backstore=
symbolfile=
thermal_components=
thermal_model=Null
work_begin_ckpt_count=0
work_begin_cpu_id_exit=-1
work_begin_exit_count=0
work_cpus_ckpt_count=0
work_end_ckpt_count=0
work_end_exit_count=0
work_item_id=-1
workload=board.workload
system_port=board.cache_hierarchy.ruby_system.sys_port_proxy.in_ports[0]

[board.cache_hierarchy]
type=SubSystem
children=ruby_system
eventq_index=0
thermal_domain=Null

[board.cache_hierarchy.ruby_system]
type=RubySystem
children=directory_controllers dma_controllers0 dma_controllers1 l1_controllers l2_controllers network power_state sys_port_proxy
access_backing_store=false
all_instructions=false
block_size_bytes=64
clk_domain=board.clk_domain
eventq_index=0
hot_lines=false
memory_size_bits=64
num_of_sequencers=3
number_of_virtual_networks=5
phys_mem=Null
power_model=
power_state=board.cache_hierarchy.ruby_system.power_state
randomization=false
system=board

[board.cache_hierarchy.ruby_system.directory_controllers]
type=Directory_Controller
children=directory power_state requestToDir requestToMemory responseFromDir responseFromMemory responseToDir
addr_ranges=0:2147483648
buffer_size=0
clk_domain=board.clk_domain
cluster_id=0
directory=board.cache_hierarchy.ruby_system.directory_controllers.directory
directory_latency=6
downstream_destinations=
eventq_index=0
mandatory_queue_latency=1
number_of_TBEs=256
power_model=
power_state=board.cache_hierarchy.ruby_system.directory_controllers.power_state
recycle_latency=10
requestToDir=board.cache_hierarchy.ruby_system.directory_controllers.requestToDir
requestToMemory=board.cache_hierarchy.ruby_system.directory_controllers.requestToMemory
responseFromDir=board.cache_hierarchy.ruby_system.directory_controllers.responseFromDir
responseFromMemory=board.cache_hierarchy.ruby_system.directory_controllers.responseFromMemory
responseToDir=board.cache_hierarchy.ruby_system.directory_controllers.responseToDir
ruby_system=board.cache_hierarchy.ruby_system
system=board
to_mem_ctrl_latency=1
transitions_per_cycle=32
version=0
memory_out_port=board.memory.mem_ctrl.port

[board.cache_hierarchy.ruby_system.directory_controllers.directory]
type=RubyDirectoryMemory
addr_ranges=0:2147483648
eventq_index=0

[board.cache_hierarchy.ruby_system.directory_controllers.power_state]
type=PowerState
clk_gate_bins=20
clk_gate_max=1000000000000
clk_gate_min=1000
default_state=UNDEFINED
eventq_index=0
leaders=
possible_states=

[board.cache_hierarchy.ruby_system.directory_controllers.requestToDir]
type=MessageBuffer
allow_zero_latency=false
buffer_size=0
eventq_index=0
ordered=false
randomization=ruby_system
in_port=board.cache_hierarchy.ruby_system.network.out_port[5]

[board.cache_hierarchy.ruby_system.directory_controllers.requestToMemory]
type=MessageBuffer
allow_zero_latency=false
buffer_size=0
eventq_index=0
ordered=false
randomization=ruby_system

[board.cache_hierarchy.ruby_system.directory_controllers.responseFromDir]
type=MessageBuffer
allow_zero_latency=false
buffer_size=0
eventq_index=0
ordered=false
randomization=ruby_system
out_port=board.cache_hierarchy.ruby_system.network.in_port[6]

[board.cache_hierarchy.ruby_system.directory_controllers.responseFromMemory]
type=MessageBuffer
allow_zero_latency=false
buffer_size=0
eventq_index=0
ordered=false
randomization=ruby_system

[board.cache_hierarchy.ruby_system.directory_controllers.responseToDir]
type=MessageBuffer
allow_zero_latency=false
buffer_size=0
eventq_index=0
ordered=false
randomization=ruby_system
in_port=board.cache_hierarchy.ruby_system.network.out_port[6]

[board.cache_hierarchy.ruby_system.dma_controllers0]
type=DMA_Controller
children=dma_sequencer mandatoryQueue power_state requestToDir responseFromDir
addr_ranges=0:18446744073709551615
buffer_size=0
clk_domain=board.clk_domain
cluster_id=0
dma_sequencer=board.cache_hierarchy.ruby_system.dma_controllers0.dma_sequencer
downstream_destinations=
eventq_index=0
mandatoryQueue=board.cache_hierarchy.ruby_system.dma_controllers0.mandatoryQueue
mandatory_queue_latency=1
number_of_TBEs=256
power_model=
power_state=board.cache_hierarchy.ruby_system.dma_controllers0.power_state
recycle_latency=10
requestToDir=board.cache_hierarchy.ruby_system.dma_controllers0.requestToDir
request_latency=6
responseFromDir=board.cache_hierarchy.ruby_system.dma_controllers0.responseFromDir
ruby_system=board.cache_hierarchy.ruby_system
system=board
transitions_per_cycle=32
version=0

[board.cache_hierarchy.ruby_system.dma_controllers0.dma_sequencer]
type=DMASequencer
children=power_state
clk_domain=board.clk_domain
eventq_index=0
is_cpu_sequencer=true
max_outstanding_requests=64
no_retry_on_stall=false
power_model=
power_state=board.cache_hierarchy.ruby_system.dma_controllers0.dma_sequencer.power_state
ruby_system=board.cache_hierarchy.ruby_system
support_data_reqs=true
support_inst_reqs=true
system=board
using_ruby_tester=false
version=0
in_ports=board.pc.south_bridge.ide.dma

[board.cache_hierarchy.ruby_system.dma_controllers0.dma_sequencer.power_state]
type=PowerState
clk_gate_bins=20
clk_gate_max=1000000000000
clk_gate_min=1000
default_state=UNDEFINED
eventq_index=0
leaders=
possible_states=

[board.cache_hierarchy.ruby_system.dma_controllers0.mandatoryQueue]
type=MessageBuffer
allow_zero_latency=false
buffer_size=0
eventq_index=0
ordered=false
randomization=ruby_system

[board.cache_hierarchy.ruby_system.dma_controllers0.power_state]
type=PowerState
clk_gate_bins=20
clk_gate_max=1000000000000
clk_gate_min=1000
default_state=UNDEFINED
eventq_index=0
leaders=
possible_states=

[board.cache_hierarchy.ruby_system.dma_controllers0.requestToDir]
type=MessageBuffer
allow_zero_latency=false
buffer_size=0
eventq_index=0
ordered=false
randomization=ruby_system
out_port=board.cache_hierarchy.ruby_system.network.in_port[7]

[board.cache_hierarchy.ruby_system.dma_controllers0.responseFromDir]
type=MessageBuffer
allow_zero_latency=false
buffer_size=0
eventq_index=0
ordered=true
randomization=ruby_system
in_port=board.cache_hierarchy.ruby_system.network.out_port[7]

[board.cache_hierarchy.ruby_system.dma_controllers1]
type=DMA_Controller
children=dma_sequencer mandatoryQueue power_state requestToDir responseFromDir
addr_ranges=0:18446744073709551615
buffer_size=0
clk_domain=board.clk_domain
cluster_id=0
dma_sequencer=board.cache_hierarchy.ruby_system.dma_controllers1.dma_sequencer
downstream_destinations=
eventq_index=0
mandatoryQueue=board.cache_hierarchy.ruby_system.dma_controllers1.mandatoryQueue
mandatory_queue_latency=1
number_of_TBEs=256
power_model=
power_state=board.cache_hierarchy.ruby_system.dma_controllers1.power_state
recycle_latency=10
requestToDir=board.cache_hierarchy.ruby_system.dma_controllers1.requestToDir
request_latency=6
responseFromDir=board.cache_hierarchy.ruby_system.dma_controllers1.responseFromDir
ruby_system=board.cache_hierarchy.ruby_system
system=board
transitions_per_cycle=32
version=1

[board.cache_hierarchy.ruby_system.dma_controllers1.dma_sequencer]
type=DMASequencer
children=power_state
clk_domain=board.clk_domain
eventq_index=0
is_cpu_sequencer=true
max_outstanding_requests=64
no_retry_on_stall=false
power_model=
power_state=board.cache_hierarchy.ruby_system.dma_controllers1.dma_sequencer.power_state
ruby_system=board.cache_hierarchy.ruby_system
support_data_reqs=true
support_inst_reqs=true
system=board
using_ruby_tester=false
version=1
in_ports=board.iobus.mem_side_ports[16]

[board.cache_hierarchy.ruby_system.dma_controllers1.dma_sequencer.power_state]
type=PowerState
clk_gate_bins=20
clk_gate_max=1000000000000
clk_gate_min=1000
default_state=UNDEFINED
eventq_index=0
leaders=
possible_states=

[board.cache_hierarchy.ruby_system.dma_controllers1.mandatoryQueue]
type=MessageBuffer
allow_zero_latency=false
buffer_size=0
eventq_index=0
ordered=false
randomization=ruby_system

[board.cache_hierarchy.ruby_system.dma_controllers1.power_state]
type=PowerState
clk_gate_bins=20
clk_gate_max=1000000000000
clk_gate_min=1000
default_state=UNDEFINED
eventq_index=0
leaders=
possible_states=

[board.cache_hierarchy.ruby_system.dma_controllers1.requestToDir]
type=MessageBuffer
allow_zero_latency=false
buffer_size=0
eventq_index=0
ordered=false
randomization=ruby_system
out_port=board.cache_hierarchy.ruby_system.network.in_port[8]

[board.cache_hierarchy.ruby_system.dma_controllers1.responseFromDir]
type=MessageBuffer
allow_zero_latency=false
buffer_size=0
eventq_index=0
ordered=true
randomization=ruby_system
in_port=board.cache_hierarchy.ruby_system.network.out_port[8]

[board.cache_hierarchy.ruby_system.l1_controllers]
type=L1Cache_Controller
children=L1Dcache L1Icache mandatoryQueue optionalQueue power_state prefetcher requestFromL1Cache requestToL1Cache responseFromL1Cache responseToL1Cache sequencer unblockFromL1Cache
L1Dcache=board.cache_hierarchy.ruby_system.l1_controllers.L1Dcache
L1Icache=board.cache_hierarchy.ruby_system.l1_controllers.L1Icache
addr_ranges=0:18446744073709551615
buffer_size=0
clk_domain=board.clk_domain
cluster_id=0
downstream_destinations=
enable_prefetch=false
eventq_index=0
l1_request_latency=2
l1_response_latency=2
l2_select_num_bits=0
mandatoryQueue=board.cache_hierarchy.ruby_system.l1_controllers.mandatoryQueue
mandatory_queue_latency=1
number_of_TBEs=256
optionalQueue=board.cache_hierarchy.ruby_system.l1_controllers.optionalQueue
power_model=
power_state=board.cache_hierarchy.ruby_system.l1_controllers.power_state
prefetcher=board.cache_hierarchy.ruby_system.l1_controllers.prefetcher
recycle_latency=10
requestFromL1Cache=board.cache_hierarchy.ruby_system.l1_controllers.requestFromL1Cache
requestToL1Cache=board.cache_hierarchy.ruby_system.l1_controllers.requestToL1Cache
responseFromL1Cache=board.cache_hierarchy.ruby_system.l1_controllers.responseFromL1Cache
responseToL1Cache=board.cache_hierarchy.ruby_system.l1_controllers.responseToL1Cache
ruby_system=board.cache_hierarchy.ruby_system
send_evictions=true
sequencer=board.cache_hierarchy.ruby_system.l1_controllers.sequencer
system=board
to_l2_latency=1
transitions_per_cycle=4
unblockFromL1Cache=board.cache_hierarchy.ruby_system.l1_controllers.unblockFromL1Cache
version=0

[board.cache_hierarchy.ruby_system.l1_controllers.L1Dcache]
type=RubyCache
children=replacement_policy
assoc=8
block_size=0
dataAccessLatency=1
dataArrayBanks=1
eventq_index=0
is_icache=false
replacement_policy=board.cache_hierarchy.ruby_system.l1_controllers.L1Dcache.replacement_policy
resourceStalls=false
ruby_system=board.cache_hierarchy.ruby_system
size=32768
start_index_bit=6
tagAccessLatency=1
tagArrayBanks=1

[board.cache_hierarchy.ruby_system.l1_controllers.L1Dcache.replacement_policy]
type=TreePLRURP
eventq_index=0
num_leaves=8

[board.cache_hierarchy.ruby_system.l1_controllers.L1Icache]
type=RubyCache
children=replacement_policy
assoc=8
block_size=0
dataAccessLatency=1
dataArrayBanks=1
eventq_index=0
is_icache=true
replacement_policy=board.cache_hierarchy.ruby_system.l1_controllers.L1Icache.replacement_policy
resourceStalls=false
ruby_system=board.cache_hierarchy.ruby_system
size=32768
start_index_bit=6
tagAccessLatency=1
tagArrayBanks=1

[board.cache_hierarchy.ruby_system.l1_controllers.L1Icache.replacement_policy]
type=TreePLRURP
eventq_index=0
num_leaves=8

[board.cache_hierarchy.ruby_system.l1_controllers.mandatoryQueue]
type=MessageBuffer
allow_zero_latency=false
buffer_size=0
eventq_index=0
ordered=false
randomization=ruby_system

[board.cache_hierarchy.ruby_system.l1_controllers.optionalQueue]
type=MessageBuffer
allow_zero_latency=false
buffer_size=0
eventq_index=0
ordered=false
randomization=ruby_system

[board.cache_hierarchy.ruby_system.l1_controllers.power_state]
type=PowerState
clk_gate_bins=20
clk_gate_max=1000000000000
clk_gate_min=1000
default_state=UNDEFINED
eventq_index=0
leaders=
possible_states=

[board.cache_hierarchy.ruby_system.l1_controllers.prefetcher]
type=RubyPrefetcher
cross_page=false
eventq_index=0
nonunit_filter=8
num_startup_pfs=1
num_streams=4
page_shift=12
train_misses=4
unit_filter=8

[board.cache_hierarchy.ruby_system.l1_controllers.requestFromL1Cache]
type=MessageBuffer
allow_zero_latency=false
buffer_size=0
eventq_index=0
ordered=false
randomization=ruby_system
out_port=board.cache_hierarchy.ruby_system.network.in_port[0]

[board.cache_hierarchy.ruby_system.l1_controllers.requestToL1Cache]
type=MessageBuffer
allow_zero_latency=false
buffer_size=0
eventq_index=0
ordered=false
randomization=ruby_system
in_port=board.cache_hierarchy.ruby_system.network.out_port[0]

[board.cache_hierarchy.ruby_system.l1_controllers.responseFromL1Cache]
type=MessageBuffer
allow_zero_latency=false
buffer_size=0
eventq_index=0
ordered=false
randomization=ruby_system
out_port=board.cache_hierarchy.ruby_system.network.in_port[1]

[board.cache_hierarchy.ruby_system.l1_controllers.responseToL1Cache]
type=MessageBuffer
allow_zero_latency=false
buffer_size=0
eventq_index=0
ordered=false
randomization=ruby_system
in_port=board.cache_hierarchy.ruby_system.network.out_port[1]

[board.cache_hierarchy.ruby_system.l1_controllers.sequencer]
type=RubySequencer
children=power_state
clk_domain=board.clk_domain
coreid=99
dcache=board.cache_hierarchy.ruby_system.l1_controllers.L1Dcache
deadlock_threshold=500000
eventq_index=0
garnet_standalone=false
is_cpu_sequencer=true
max_outstanding_requests=16
no_retry_on_stall=false
power_model=
power_state=board.cache_hierarchy.ruby_system.l1_controllers.sequencer.power_state
ruby_system=board.cache_hierarchy.ruby_system
support_data_reqs=true
support_inst_reqs=true
system=board
using_ruby_tester=false
version=0
in_ports=board.processor.cores0.core.icache_port board.processor.cores0.core.dcache_port board.processor.cores0.core.mmu.itb.walker.port board.processor.cores0.core.mmu.dtb.walker.port board.processor.cores0.core.interrupts.int_requestor
interrupt_out_port=board.processor.cores0.core.interrupts.pio board.processor.cores0.core.interrupts.int_responder
mem_request_port=board.iobus.cpu_side_ports[2]
pio_request_port=board.iobus.cpu_side_ports[1]
pio_response_port=board.iobus.mem_side_ports[15]

[board.cache_hierarchy.ruby_system.l1_controllers.sequencer.power_state]
type=PowerState
clk_gate_bins=20
clk_gate_max=1000000000000
clk_gate_min=1000
default_state=UNDEFINED
eventq_index=0
leaders=
possible_states=

[board.cache_hierarchy.ruby_system.l1_controllers.unblockFromL1Cache]
type=MessageBuffer
allow_zero_latency=false
buffer_size=0
eventq_index=0
ordered=false
randomization=ruby_system
out_port=board.cache_hierarchy.ruby_system.network.in_port[2]

[board.cache_hierarchy.ruby_system.l2_controllers]
type=L2Cache_Controller
children=DirRequestFromL2Cache L1RequestFromL2Cache L1RequestToL2Cache L2cache power_state responseFromL2Cache responseToL2Cache unblockToL2Cache
DirRequestFromL2Cache=board.cache_hierarchy.ruby_system.l2_controllers.DirRequestFromL2Cache
L1RequestFromL2Cache=board.cache_hierarchy.ruby_system.l2_controllers.L1RequestFromL2Cache
L1RequestToL2Cache=board.cache_hierarchy.ruby_system.l2_controllers.L1RequestToL2Cache
L2cache=board.cache_hierarchy.ruby_system.l2_controllers.L2cache
addr_ranges=0:18446744073709551615
buffer_size=0
clk_domain=board.clk_domain
cluster_id=0
downstream_destinations=
eventq_index=0
l2_request_latency=2
l2_response_latency=2
mandatory_queue_latency=1
number_of_TBEs=256
power_model=
power_state=board.cache_hierarchy.ruby_system.l2_controllers.power_state
recycle_latency=10
responseFromL2Cache=board.cache_hierarchy.ruby_system.l2_controllers.responseFromL2Cache
responseToL2Cache=board.cache_hierarchy.ruby_system.l2_controllers.responseToL2Cache
ruby_system=board.cache_hierarchy.ruby_system
system=board
to_l1_latency=1
transitions_per_cycle=4
unblockToL2Cache=board.cache_hierarchy.ruby_system.l2_controllers.unblockToL2Cache
version=0

[board.cache_hierarchy.ruby_system.l2_controllers.DirRequestFromL2Cache]
type=MessageBuffer
allow_zero_latency=false
buffer_size=0
eventq_index=0
ordered=false
randomization=ruby_system
out_port=board.cache_hierarchy.ruby_system.network.in_port[3]

[board.cache_hierarchy.ruby_system.l2_controllers.L1RequestFromL2Cache]
type=MessageBuffer
allow_zero_latency=false
buffer_size=0
eventq_index=0
ordered=false
randomization=ruby_system
out_port=board.cache_hierarchy.ruby_system.network.in_port[4]

[board.cache_hierarchy.ruby_system.l2_controllers.L1RequestToL2Cache]
type=MessageBuffer
allow_zero_latency=false
buffer_size=0
eventq_index=0
ordered=false
randomization=ruby_system
in_port=board.cache_hierarchy.ruby_system.network.out_port[3]

[board.cache_hierarchy.ruby_system.l2_controllers.L2cache]
type=RubyCache
children=replacement_policy
assoc=16
block_size=0
dataAccessLatency=1
dataArrayBanks=1
eventq_index=0
is_icache=false
replacement_policy=board.cache_hierarchy.ruby_system.l2_controllers.L2cache.replacement_policy
resourceStalls=false
ruby_system=board.cache_hierarchy.ruby_system
size=262144
start_index_bit=6
tagAccessLatency=1
tagArrayBanks=1

[board.cache_hierarchy.ruby_system.l2_controllers.L2cache.replacement_policy]
type=TreePLRURP
eventq_index=0
num_leaves=16

[board.cache_hierarchy.ruby_system.l2_controllers.power_state]
type=PowerState
clk_gate_bins=20
clk_gate_max=1000000000000
clk_gate_min=1000
default_state=UNDEFINED
eventq_index=0
leaders=
possible_states=

[board.cache_hierarchy.ruby_system.l2_controllers.responseFromL2Cache]
type=MessageBuffer
allow_zero_latency=false
buffer_size=0
eventq_index=0
ordered=false
randomization=ruby_system
out_port=board.cache_hierarchy.ruby_system.network.in_port[5]

[board.cache_hierarchy.ruby_system.l2_controllers.responseToL2Cache]
type=MessageBuffer
allow_zero_latency=false
buffer_size=0
eventq_index=0
ordered=false
randomization=ruby_system
in_port=board.cache_hierarchy.ruby_system.network.out_port[4]

[board.cache_hierarchy.ruby_system.l2_controllers.unblockToL2Cache]
type=MessageBuffer
allow_zero_latency=false
buffer_size=0
eventq_index=0
ordered=false
randomization=ruby_system
in_port=board.cache_hierarchy.ruby_system.network.out_port[2]

[board.cache_hierarchy.ruby_system.network]
type=SimpleNetwork
children=ext_links0 ext_links1 ext_links2 ext_links3 ext_links4 int_link_buffers000 int_link_buffers001 int_link_buffers002 int_link_buffers003 int_link_buffers004 int_link_buffers005 int_link_buffers006 int_link_buffers007 int_link_buffers008 int_link_buffers009 int_link_buffers010 int_link_buffers011 int_link_buffers012 int_link_buffers013 int_link_buffers014 int_link_buffers015 int_link_buffers016 int_link_buffers017 int_link_buffers018 int_link_buffers019 int_link_buffers020 int_link_buffers021 int_link_buffers022 int_link_buffers023 int_link_buffers024 int_link_buffers025 int_link_buffers026 int_link_buffers027 int_link_buffers028 int_link_buffers029 int_link_buffers030 int_link_buffers031 int_link_buffers032 int_link_buffers033 int_link_buffers034 int_link_buffers035 int_link_buffers036 int_link_buffers037 int_link_buffers038 int_link_buffers039 int_link_buffers040 int_link_buffers041 int_link_buffers042 int_link_buffers043 int_link_buffers044 int_link_buffers045 int_link_buffers046 int_link_buffers047 int_link_buffers048 int_link_buffers049 int_link_buffers050 int_link_buffers051 int_link_buffers052 int_link_buffers053 int_link_buffers054 int_link_buffers055 int_link_buffers056 int_link_buffers057 int_link_buffers058 int_link_buffers059 int_link_buffers060 int_link_buffers061 int_link_buffers062 int_link_buffers063 int_link_buffers064 int_link_buffers065 int_link_buffers066 int_link_buffers067 int_link_buffers068 int_link_buffers069 int_link_buffers070 int_link_buffers071 int_link_buffers072 int_link_buffers073 int_link_buffers074 int_link_buffers075 int_link_buffers076 int_link_buffers077 int_link_buffers078 int_link_buffers079 int_link_buffers080 int_link_buffers081 int_link_buffers082 int_link_buffers083 int_link_buffers084 int_link_buffers085 int_link_buffers086 int_link_buffers087 int_link_buffers088 int_link_buffers089 int_link_buffers090 int_link_buffers091 int_link_buffers092 int_link_buffers093 int_link_buffers094 int_link_buffers095 int_link_buffers096 int_link_buffers097 int_link_buffers098 int_link_buffers099 int_link_buffers100 int_link_buffers101 int_link_buffers102 int_link_buffers103 int_link_buffers104 int_link_buffers105 int_link_buffers106 int_link_buffers107 int_link_buffers108 int_link_buffers109 int_link_buffers110 int_link_buffers111 int_link_buffers112 int_link_buffers113 int_link_buffers114 int_link_buffers115 int_link_buffers116 int_link_buffers117 int_link_buffers118 int_link_buffers119 int_link_buffers120 int_link_buffers121 int_link_buffers122 int_link_buffers123 int_link_buffers124 int_link_buffers125 int_link_buffers126 int_link_buffers127 int_link_buffers128 int_link_buffers129 int_link_buffers130 int_link_buffers131 int_link_buffers132 int_link_buffers133 int_link_buffers134 int_link_buffers135 int_link_buffers136 int_link_buffers137 int_link_buffers138 int_link_buffers139 int_link_buffers140 int_link_buffers141 int_link_buffers142 int_link_buffers143 int_link_buffers144 int_link_buffers145 int_link_buffers146 int_link_buffers147 int_link_buffers148 int_link_buffers149 int_link_buffers150 int_link_buffers151 int_link_buffers152 int_link_buffers153 int_link_buffers154 int_link_buffers155 int_link_buffers156 int_link_buffers157 int_link_buffers158 int_link_buffers159 int_link_buffers160 int_link_buffers161 int_link_buffers162 int_link_buffers163 int_link_buffers164 int_link_buffers165 int_link_buffers166 int_link_buffers167 int_link_buffers168 int_link_buffers169 int_link_buffers170 int_link_buffers171 int_link_buffers172 int_link_buffers173 int_link_buffers174 int_link_buffers175 int_link_buffers176 int_link_buffers177 int_link_buffers178 int_link_buffers179 int_link_buffers180 int_link_buffers181 int_link_buffers182 int_link_buffers183 int_link_buffers184 int_link_buffers185 int_link_buffers186 int_link_buffers187 int_link_buffers188 int_link_buffers189 int_link_buffers190 int_link_buffers191 int_link_buffers192 int_link_buffers193 int_link_buffers194 int_link_buffers195 int_link_buffers196 int_link_buffers197 int_link_buffers198 int_link_buffers199 int_links00 int_links01 int_links02 int_links03 int_links04 int_links05 int_links06 int_links07 int_links08 int_links09 int_links10 int_links11 int_links12 int_links13 int_links14 int_links15 int_links16 int_links17 int_links18 int_links19 power_state routers0 routers1 routers2 routers3 routers4
adaptive_routing=false
buffer_size=0
clk_domain=board.clk_domain
control_msg_size=8
data_msg_size=64
endpoint_bandwidth=1000
eventq_index=0
ext_links=board.cache_hierarchy.ruby_system.network.ext_links0 board.cache_hierarchy.ruby_system.network.ext_links1 board.cache_hierarchy.ruby_system.network.ext_links2 board.cache_hierarchy.ruby_system.network.ext_links3 board.cache_hierarchy.ruby_system.network.ext_links4